# CIF file created by FINDSYM, version 7.1.3

data_findsym-output
_audit_creation_method FINDSYM

_cell_length_a     20.1448000000
_cell_length_b     20.1448000000
_cell_length_c     20.1448000000
_cell_angle_alpha  90.0000000000
_cell_angle_beta   90.0000000000
_cell_angle_gamma  90.0000000000
_cell_volume       8175.0210584274

_symmetry_space_group_name_H-M "F 2 3"
_symmetry_Int_Tables_number 196
_space_group.reference_setting '196:F 2 2 3'
_space_group.transform_Pp_abc a,b,c;0,0,0

loop_
_space_group_symop_id
_space_group_symop_operation_xyz
1 x,y,z
2 x,-y,-z
3 -x,y,-z
4 -x,-y,z
5 y,z,x
6 y,-z,-x
7 -y,z,-x
8 -y,-z,x
9 z,x,y
10 z,-x,-y
11 -z,x,-y
12 -z,-x,y
13 x,y+1/2,z+1/2
14 x,-y+1/2,-z+1/2
15 -x,y+1/2,-z+1/2
16 -x,-y+1/2,z+1/2
17 y,z+1/2,x+1/2
18 y,-z+1/2,-x+1/2
19 -y,z+1/2,-x+1/2
20 -y,-z+1/2,x+1/2
21 z,x+1/2,y+1/2
22 z,-x+1/2,-y+1/2
23 -z,x+1/2,-y+1/2
24 -z,-x+1/2,y+1/2
25 x+1/2,y,z+1/2
26 x+1/2,-y,-z+1/2
27 -x+1/2,y,-z+1/2
28 -x+1/2,-y,z+1/2
29 y+1/2,z,x+1/2
30 y+1/2,-z,-x+1/2
31 -y+1/2,z,-x+1/2
32 -y+1/2,-z,x+1/2
33 z+1/2,x,y+1/2
34 z+1/2,-x,-y+1/2
35 -z+1/2,x,-y+1/2
36 -z+1/2,-x,y+1/2
37 x+1/2,y+1/2,z
38 x+1/2,-y+1/2,-z
39 -x+1/2,y+1/2,-z
40 -x+1/2,-y+1/2,z
41 y+1/2,z+1/2,x
42 y+1/2,-z+1/2,-x
43 -y+1/2,z+1/2,-x
44 -y+1/2,-z+1/2,x
45 z+1/2,x+1/2,y
46 z+1/2,-x+1/2,-y
47 -z+1/2,x+1/2,-y
48 -z+1/2,-x+1/2,y

loop_
_atom_type_symbol
Zn    
O     
N     
C     
H     

loop_
_atom_site_label
_atom_site_type_symbol
_atom_site_symmetry_multiplicity
_atom_site_Wyckoff_symbol
_atom_site_fract_x
_atom_site_fract_y
_atom_site_fract_z
_atom_site_occupancy
_atom_site_fract_symmform
Zn1 Zn  16 e  0.1949300000  0.1949300000  0.1949300000  1.0000000000 Dx,Dx,Dx 
Zn2 Zn  16 e  0.8072100000  0.8072100000  0.8072100000  1.0000000000 Dx,Dx,Dx 
O1  O    4 c  0.2500000000  0.2500000000  0.2500000000  1.0000000000 0,0,0    
O2  O    4 d  0.7500000000  0.7500000000  0.7500000000  1.0000000000 0,0,0    
N1  N   48 h  0.2257000000  0.2250000000  0.1021000000  1.0000000000 Dx,Dy,Dz 
O3  O   48 h  0.7161000000  0.2161000000  0.3974000000  1.0000000000 Dx,Dy,Dz 
C1  C   24 g -0.0008000000  0.2500000000  0.2500000000  1.0000000000 Dx,0,0   
C2  C   48 h  0.2106000000  0.2111000000  0.0432000000  1.0000000000 Dx,Dy,Dz 
H1  H   48 h  0.1780000000  0.1797000000  0.0301000000  1.0000000000 Dx,Dy,Dz 
C3  C   24 g -0.0758000000  0.2500000000  0.2500000000  1.0000000000 Dx,0,0   

# end of cif
