# CIF file created by FINDSYM, version 7.1.3

data_findsym-output
_audit_creation_method FINDSYM

_cell_length_a    7.0730000000
_cell_length_b    9.1660000000
_cell_length_c    12.6670000000
_cell_angle_alpha 90.0000000000
_cell_angle_beta  115.5100000000
_cell_angle_gamma 90.0000000000
_cell_volume      741.1555547216

_symmetry_space_group_name_H-M "P 1 21/c 1"
_symmetry_Int_Tables_number 14
_space_group.reference_setting '014:-P 2ybc'
_space_group.transform_Pp_abc a,b,c;0,0,0

loop_
_space_group_symop_id
_space_group_symop_operation_xyz
1 x,y,z
2 -x,y+1/2,-z+1/2
3 -x,-y,-z
4 x,-y+1/2,z+1/2

loop_
_atom_site_label
_atom_site_type_symbol
_atom_site_symmetry_multiplicity
_atom_site_Wyckoff_label
_atom_site_fract_x
_atom_site_fract_y
_atom_site_fract_z
_atom_site_occupancy
_atom_site_fract_symmform
C1 C   4 e 0.85040  0.14210  0.43813 1.00000 Dx,Dy,Dz 
C2 C   4 e 0.75680  0.14242  0.51474 1.00000 Dx,Dy,Dz 
C3 C   4 e 0.82960  0.23794  0.60996 1.00000 Dx,Dy,Dz 
C4 C   4 e -0.00430 0.33162  0.62922 1.00000 Dx,Dy,Dz 
C5 C   4 e 0.09210  0.32908  0.55399 1.00000 Dx,Dy,Dz 
C6 C   4 e 0.01940  0.23440  0.45894 1.00000 Dx,Dy,Dz 
C7 C   4 e 0.60170  -0.01599 0.28025 1.00000 Dx,Dy,Dz 
C8 C   4 e 0.58320  0.89631  0.17560 1.00000 Dx,Dy,Dz 
N1 N   4 e 0.78771  0.05016  0.33911 1.00000 Dx,Dy,Dz 
O1 O   4 e 0.05870  0.42489  0.72189 1.00000 Dx,Dy,Dz 
O2 O   4 e 0.45550  -0.00741 0.30854 1.00000 Dx,Dy,Dz 
H1 H   4 e 0.62840  0.07020  0.50120 1.00000 Dx,Dy,Dz 
H2 H   4 e 0.75780  0.23660  0.66960 1.00000 Dx,Dy,Dz 
H3 H   4 e 0.22340  0.40000  0.56910 1.00000 Dx,Dy,Dz 
H4 H   4 e 0.09230  0.23360  0.39950 1.00000 Dx,Dy,Dz 
H5 H   4 e 0.20010  0.46470  0.74240 1.00000 Dx,Dy,Dz 
H6 H   4 e 0.89180  0.04070  0.30490 1.00000 Dx,Dy,Dz 
H7 H   4 e 0.43160  -0.08530 0.10390 1.00000 Dx,Dy,Dz 
H8 H   4 e 0.70610  -0.07980 0.14990 1.00000 Dx,Dy,Dz 
H9 H   4 e 0.59140  0.78090  0.19770 1.00000 Dx,Dy,Dz 

# end of cif
